4、CSEE-PFO(68-2023)/PFO3.m
function mpc = PFO3
%   MATPOWER 

%% MATPOWER Case Format : Version 2 
mpc.version = '2';

%%-----  Power Flow Data  -----%% 
%% system MVA base
mpc.baseMVA = 100; 

%% bus data 
%	bus_i	type	Pd	Qd	Gs	Bs	area	Vm	Va	baseKV	zone	Vmax	Vmin
mpc.bus = [
    1    1    0    0    0    0        1    1.004500069906418    -2.445038862153583    1    1    1.06    0.94;
    2    1    0    0    0    0        1    1.005526558194628    -1.394206884180431    1    1    1.06    0.94;
    3    1    0    0    0    0        1    1.006052561427757    -1.710962531943178    1    1    1.06    0.94;
    4    1    0    0    0    0        1    1.004084319045555    -2.107208831257291    1    1    1.06    0.94;
    5    1    0    0    0    0        1    1.004069227631103    -2.094868003183938    1    1    1.06    0.94;
    6    1    0    0    0    0        1    1.003617592146853    -2.669265029344544    1    1    1.06    0.94;
    7    1    0    0    0    0        1    1.003617592146853    -2.669265029344544    1    1    1.06    0.94;
    8    1    0    0    0    1670        1    1.004372970225868    -2.655164986120274    1    1    1.06    0.94;
    9    1    0    0    0    1670        1    0.9998768873516375    0.2041761210743158    1    1    1.06    0.94;
    10    1    260    70    0    0        1    0.9936743622122336    2.212625215053887    1    1    1.06    0.94;
    11    1    260    70    0    0        1    0.9958036477284757    0.8117960688027309    1    1    1.06    0.94;
    12    1    50    32    0    0        1    0.9999069229843357    -2.845950003034628    1    1    1.06    0.94;
    13    1    230    30    0    0        1    0.9990891621056671    -3.960676233196796    1    1    1.06    0.94;
    14    1    230    30    0    0        1    0.9990739952595064    -3.948391499929794    1    1    1.06    0.94;
    15    1    400    70    0    0        1    0.9916336487119778    -5.918581025682884    1    1    1.06    0.94;
    16    1    400    70    0    0        1    0.9916336487119778    -5.918581025682884    1    1    1.06    0.94;
    17    1    0    0    0    0        1    0.9953547902826633    3.741064280531509    1    1    1.06    0.94;
    18    1    0    0    0    0        1    0.9940120436867317    3.754124092410724    1    1    1.06    0.94;
    19    1    0    0    0    0        1    0.9953547902826633    3.741064280531509    1    1    1.06    0.94;
    20    1    0    0    0    0        1    0.9953547902826633    3.741064280531509    1    1    1.06    0.94;
    21    1    0    0    0    0        1    0.9966606042781683    2.341678736446464    1    1    1.06    0.94;
    22    1    0    0    0    0        1    0.9966606042781683    2.341678736446464    1    1    1.06    0.94;
    23    1    0    0    0    0        1    0.9966606042781683    2.341678736446464    1    1    1.06    0.94;
    24    1    0    0    0    0        1    0.9923221090253472    2.618747005435676    1    1    1.06    0.94;
    25    1    0    0    0    0        1    0.9923221090253472    2.618747005435676    1    1    1.06    0.94;
    26    1    0    0    0    0        1    0.9923221090253472    2.618747005435676    1    1    1.06    0.94;
    27    1    0    0    0    0        1    0.9945864329511555    1.094857629451773    1    1    1.06    0.94;
    28    1    0    0    0    0        1    0.9945864329511555    1.094857629451773    1    1    1.06    0.94;
    29    1    0    0    0    0        1    0.9945864329511555    1.094857629451773    1    1    1.06    0.94;
    30    1    0    0    0    0        1    0.9994265673696198    -2.892161264328299    1    1    1.06    0.94;
    31    1    0    0    0    0        1    0.9987365456155382    -4.170204194018669    1    1    1.06    0.94;
    32    1    0    0    0    0        1    0.9987213818371143    -4.157925817309574    1    1    1.06    0.94;
    33    1    0    0    0    0        1    0.9907407023558785    -6.289202072811309    1    1    1.06    0.94;
    34    1    0    0    0    0        1    0.9907407023558785    -6.289202072811309    1    1    1.06    0.94;
    35    1    0    0    0    20        1    0.9959938268042776    7.790063323203338    1    1    1.06    0.94;
    36    1    0    0    0    0        1    0.988902165343996    7.819148142768085    1    1    1.06    0.94;
    37    1    0    0    0    0        1    0.9875325633111393    7.843399698301443    1    1    1.06    0.94;
    38    1    0    0    0    0        1    0.9875325633111393    7.843399698301443    1    1    1.06    0.94;
    39    1    0    0    0    20        1    0.9959938268042776    7.790063323203338    1    1    1.06    0.94;
    40    1    0    0    0    0        1    0.988902165343996    7.819148142768085    1    1    1.06    0.94;
    41    1    0    0    0    0        1    0.988902165343996    7.819148142768085    1    1    1.06    0.94;
    42    1    0    0    0    20        1    0.9959938268042776    7.790063323203338    1    1    1.06    0.94;
    43    1    0    0    0    0        1    0.991560162460983    6.403475082382979    1    1    1.06    0.94;
    44    1    0    0    0    0        1    0.991560162460983    6.403475082382979    1    1    1.06    0.94;
    45    1    0    0    0    0        1    0.991560162460983    6.403475082382979    1    1    1.06    0.94;
    46    1    0    0    0    0        1    0.991560162460983    6.403475082382979    1    1    1.06    0.94;
    47    1    0    0    0    0        1    0.991560162460983    6.403475082382979    1    1    1.06    0.94;
    48    1    0    0    0    0        1    0.991560162460983    6.403475082382979    1    1    1.06    0.94;
    49    1    0    0    0    0        1    0.9325486522421572    -9.625136698705129    1    2    1.06    0.94;
    50    1    0    0    0    0        1    0.954600481689388    6.619944908130803    1    2    1.06    0.94;
    51    1    0    0    0    0        1    0.9325486522421572    -9.625136698705129    1    2    1.06    0.94;
    52    1    0    0    0    0        1    0.954600481689388    6.619944908130803    1    2    1.06    0.94;
    53    1    0    0    0    0        1    0.9908898719384575    8.510277265082584    1    1    1.06    0.94;
    54    1    0    0    0    0        1    0.9908898719384575    8.510277265082584    1    1    1.06    0.94;
    55    1    0    0    0    0        1    0.9908898719384575    8.510277265082584    1    1    1.06    0.94;
    56    1    0    0    0    0        1    0.9908898719384575    8.510277265082584    1    1    1.06    0.94;
    57    1    0    0    0    0        1    0.9908898719384575    8.510277265082584    1    1    1.06    0.94;
    58    1    0    0    0    0        1    0.9908898719384575    8.510277265082584    1    1    1.06    0.94;
    59    3    0    0    0    0        1    1    0    1    3    1.06    0.94;
    60    2    0    0    0    61.6936        1    1.019999936026148    -1.405322462889529    1    4    1.06    0.94;
    61    2    0    0    0    61.6936        1    1.019999936026148    -1.405322462889529    1    4    1.06    0.94;
    62    2    0    0    0    59.452        1    1.020000054134649    -1.721668697567774    1    4    1.06    0.94;
    63    2    0    0    0    59.452        1    1.020000054134649    -1.721668697567774    1    4    1.06    0.94;
    64    1    0    0    0    0        1    0.9923221090253472    2.618747005435676    1    1    1.06    0.94;
    65    1    0    0    0    0        1    0.9923221090253472    2.618747005435676    1    1    1.06    0.94;
    66    1    0    0    0    0        1    0.9923221090253472    2.618747005435676    1    1    1.06    0.94;
    67    1    0    0    0    0        1    0.9945864329511555    1.094857629451773    1    1    1.06    0.94;
    68    1    0    0    0    0        1    0.9945864329511555    1.094857629451773    1    1    1.06    0.94;
    69    1    0    0    0    0        1    0.9945864329511555    1.094857629451773    1    1    1.06    0.94;
    70    1    0    0    0    0        1    0.9994265673696198    -2.892161264328299    1    1    1.06    0.94;
    71    1    0    0    0    0        1    0.9987365456155382    -4.170204194018669    1    1    1.06    0.94;
    72    1    0    0    0    0        1    0.9987213818371143    -4.157925817309574    1    1    1.06    0.94;
    73    1    0    0    0    0        1    0.9907407023558785    -6.289202072811309    1    1    1.06    0.94;
    74    1    0    0    0    0        1    0.9907407023558785    -6.289202072811309    1    1    1.06    0.94;
    75    2    0    0    0    0        1    1.000000075921441    10.53121656080534    1    1    1.06    0.94;
    76    2    0    0    0    0        1    1.000000075921441    10.53121656080534    1    1    1.06    0.94;
    77    2    0    0    0    0        1    1.000000004007155    10.54374340403991    1    1    1.06    0.94;
    78    2    0    0    0    0        1    1.000000004007155    10.54374340403991    1    1    1.06    0.94;
    79    3    0    0    0    0        1    1    0    1    1    1.06    0.94;
    80    1    0    0    0    0        1    0.9945038373057962    10.92446541336871    1    1    1.06    0.94;
    81    1    0    0    0    0        1    0.9873797461289128    10.99885232834346    1    1    1.06    0.94;
    82    1    0    0    0    0        1    0.9860036973276358    11.03196671698276    1    1    1.06    0.94;
    83    1    0    0    0    0        1    0.9860036973276358    11.03196671698276    1    1    1.06    0.94;
    84    1    0    0    0    0        1    0.9945038373057962    10.92446541336871    1    1    1.06    0.94;
    85    1    0    0    0    0        1    0.9873797461289128    10.99885232834346    1    1    1.06    0.94;
    86    1    0    0    0    0        1    0.9873797461289128    10.99885232834346    1    1    1.06    0.94;
    87    1    0    0    0    0        1    0.9945038373057962    10.92446541336871    1    1    1.06    0.94;
];
%% generator data
%	bus	Pg	Qg	Qmax	Qmin	Vg	mBase	status	Pmax	Pmin	Pc1	Pc2	Qc1min	Qc1max	Qc2min	Qc2max	ramp_agc	ramp_10	ramp_30	ramp_q	apf
mpc.gen = [
  53  200  0  0  0  0.9908898719384575  100  1  400  0   0 0 0 0 0 0 0 0 0 0 0;
  54  200  0  0  0  0.9908898719384575  100  1  400  0   0 0 0 0 0 0 0 0 0 0 0;
  55  200  0  0  0  0.9908898719384575  100  1  400  0   0 0 0 0 0 0 0 0 0 0 0;
  56  200  0  0  0  0.9908898719384575  100  1  400  0   0 0 0 0 0 0 0 0 0 0 0;
  57  200  0  0  0  0.9908898719384575  100  1  400  0   0 0 0 0 0 0 0 0 0 0 0;
  58  200  0  0  0  0.9908898719384575  100  1  400  0   0 0 0 0 0 0 0 0 0 0 0;
  59  -3563.0997  129.4922  99999  -9999  1  100  1  9999  0   0 0 0 0 0 0 0 0 0 0 0;
  75  660  55.2282  522  -374  1.000000075921441  100  1  660  0   0 0 0 0 0 0 0 0 0 0 0;
  76  660  55.2282  510  -294  1.000000075921441  100  1  660  0   0 0 0 0 0 0 0 0 0 0 0;
  77  660  55.2742  510  -294  1.000000004007155  100  1  660  0   0 0 0 0 0 0 0 0 0 0 0;
  78  660  55.2742  300  -200  1.000000004007155  100  1  660  0   0 0 0 0 0 0 0 0 0 0 0;
  79  110.0924  -11.1271  300  -200  1  100  1  660  0   0 0 0 0 0 0 0 0 0 0 0;
  80  200  0  0  0  0.9945038373057962  100  1  200  0   0 0 0 0 0 0 0 0 0 0 0;
  81  200  0  0  0  0.9873797461289128  100  1  200  0   0 0 0 0 0 0 0 0 0 0 0;
  82  200  0  0  0  0.9860036973276358  100  1  200  0   0 0 0 0 0 0 0 0 0 0 0;
  83  200  0  0  0  0.9860036973276358  100  1  200  0   0 0 0 0 0 0 0 0 0 0 0;
  84  200  0  0  0  0.9945038373057962  100  1  200  0   0 0 0 0 0 0 0 0 0 0 0;
  85  200  0  0  0  0.9873797461289128  100  1  200  0   0 0 0 0 0 0 0 0 0 0 0;
  86  200  0  0  0  0.9873797461289128  100  1  200  0   0 0 0 0 0 0 0 0 0 0 0;
  87  200  0  0  0  0.9945038373057962  100  1  200  0   0 0 0 0 0 0 0 0 0 0 0;
49    -1850    -638.48876953125    9999  -9999  0.9908898719384575  100  1  -9999  0   0 0 0 0 0 0 0 0 0 0 0;
50    1781.549926757812    -655.8092651367188    9999  -9999  0.9908898719384575  100  1  -9999  0   0 0 0 0 0 0 0 0 0 0 0;
51    -1850    -638.48876953125    9999  -9999  0.9908898719384575  100  1  -9999  0   0 0 0 0 0 0 0 0 0 0 0;
52    1781.549926757812    -655.8092651367188    9999  -9999  0.9908898719384575  100  1  -9999  0   0 0 0 0 0 0 0 0 0 0 0;
];
%% branch data
%	fbus	tbus	r	x	b	rateA	rateB	rateC	ratio	angle	status	angmin	angmax   
mpc.branch = [
  1  6  0.00011  0.00199  0.27364  967  967  967  0    0  1  -360  360  ;
  1  6  0.00011  0.00199  0.27364  967  967  967  0    0  1  -360  360  ;
  1  7  0.00011  0.00199  0.27364  967  967  967  0    0  1  -360  360  ;
  1  7  0.00011  0.00199  0.27364  967  967  967  0    0  1  -360  360  ;
  2  1  0.00017  0.00279  1.88286  4000  4000  4000  0    0  1  -360  360  ;
  2  1  0.00014  0.00277  1.88222  4000  4000  4000  0    0  1  -360  360  ;
  3  1  0.00017  0.00279  1.88286  4000  4000  4000  0    0  1  -360  360  ;
  3  1  0.00014  0.00277  1.88222  4000  4000  4000  0    0  1  -360  360  ;
  4  1  6.999999999999999e-05  0.00106  0.74212  1600  1600  1600  0    0  1  -360  360  ;
  4  1  6.999999999999999e-05  0.00111  0.75338  1600  1600  1600  0    0  1  -360  360  ;
  5  1  6.999999999999999e-05  0.00101  0.69728  1600  1600  1600  0    0  1  -360  360  ;
  5  1  6.999999999999999e-05  0.00103  0.71478  1600  1600  1600  0    0  1  -360  360  ;
  8  1  0  0.0001  0  0  0  0  0    0  1  -360  360  ;
  10  17  0.00186  0.01307  0.04824  1596  1596  1596  0    0  1  -360  360  ;
  10  17  0.00186  0.01307  0.04824  1596  1596  1596  0    0  1  -360  360  ;
  10  18  0.00186  0.01307  0.04824  1596  1596  1596  0    0  1  -360  360  ;
  10  18  0.00186  0.01307  0.04824  1596  1596  1596  0    0  1  -360  360  ;
  10  19  0.00186  0.01307  0.04824  1596  1596  1596  0    0  1  -360  360  ;
  10  19  0.00186  0.01307  0.04824  1596  1596  1596  0    0  1  -360  360  ;
  10  20  0.00186  0.01307  0.04824  1596  1596  1596  0    0  1  -360  360  ;
  10  20  0.00186  0.01307  0.04824  1596  1596  1596  0    0  1  -360  360  ;
  11  21  0.00186  0.01307  0.04824  1596  1596  1596  0    0  1  -360  360  ;
  11  21  0.00186  0.01307  0.04824  1596  1596  1596  0    0  1  -360  360  ;
  11  22  0.00186  0.01307  0.04824  1596  1596  1596  0    0  1  -360  360  ;
  11  22  0.00186  0.01307  0.04824  1596  1596  1596  0    0  1  -360  360  ;
  11  23  0.00186  0.01307  0.04824  1596  1596  1596  0    0  1  -360  360  ;
  11  23  0.00186  0.01307  0.04824  1596  1596  1596  0    0  1  -360  360  ;
  59  9  0  0.0001  0  0  0  0  0    0  1  -360  360  ;
  2  60  0.00031  0.023    0    360  360  360  1    0  1  -360  360  
  2  61  0.00031  0.023    0    360  360  360  1    0  1  -360  360  
  3  62  0.00031  0.023    0    360  360  360  1    0  1  -360  360  
  3  63  0.00031  0.023    0    360  360  360  1    0  1  -360  360  
  8  49  0  0.006    0    3000  3000  3000  1.023953218005905    0  1  -360  360  
  8  51  0  0.006    0    3000  3000  3000  1.023953218005905    0  1  -360  360  
  9  50  0  0.006    0    3000  3000  3000  0.9977852957588571    0  1  -360  360  
  9  52  0  0.006    0    3000  3000  3000  0.9977852957588571    0  1  -360  360  
  17  35  0  0.035    0    300  300  300  1    0  1  -360  360  
  17  36  0  0.035    0    300  300  300  1    0  1  -360  360  
  18  37  0  0.035    0    300  300  300  1    0  1  -360  360  
  18  38  0  0.035    0    300  300  300  1    0  1  -360  360  
  19  39  0  0.035    0    300  300  300  1    0  1  -360  360  
  19  40  0  0.035    0    300  300  300  1    0  1  -360  360  
  20  41  0  0.035    0    300  300  300  1    0  1  -360  360  
  20  42  0  0.035    0    300  300  300  1    0  1  -360  360  
  21  43  0  0.035    0    300  300  300  1    0  1  -360  360  
  21  44  0  0.035    0    300  300  300  1    0  1  -360  360  
  22  45  0  0.035    0    300  300  300  1    0  1  -360  360  
  22  46  0  0.035    0    300  300  300  1    0  1  -360  360  
  23  47  0  0.035    0    300  300  300  1    0  1  -360  360  
  23  48  0  0.035    0    300  300  300  1    0  1  -360  360  
  53  43  0  0.01806    0    360  360  360  1.000000015    0  1  -360  360  
  54  44  0  0.01806    0    360  360  360  1.000000015    0  1  -360  360  
  55  45  0  0.01806    0    360  360  360  1.000000015    0  1  -360  360  
  56  46  0  0.01806    0    360  360  360  1.000000015    0  1  -360  360  
  57  47  0  0.01806    0    360  360  360  1.000000015    0  1  -360  360  
  58  48  0  0.01806    0    360  360  360  1.000000015    0  1  -360  360  
  64  2  5e-05  0.0157    0    1000  1000  1000  1    0  1  -360  360  
  64  10  5e-05  -0.00158    0    1000  1000  1000  1    0  1  -360  360  
  64  24  0.00021  0.02668    0    360  360  360  1    0  1  -360  360  
  65  2  5e-05  0.0157    0    1000  1000  1000  1    0  1  -360  360  
  65  10  5e-05  -0.00158    0    1000  1000  1000  1    0  1  -360  360  
  65  25  0.00021  0.02668    0    360  360  360  1    0  1  -360  360  
  66  2  5e-05  0.0157    0    1000  1000  1000  1    0  1  -360  360  
  66  10  5e-05  -0.00158    0    1000  1000  1000  1    0  1  -360  360  
  66  26  0.00021  0.02668    0    360  360  360  1    0  1  -360  360  
  67  3  5e-05  0.0157    0    1000  1000  1000  1    0  1  -360  360  
  67  11  5e-05  -0.00158    0    1000  1000  1000  1    0  1  -360  360  
  67  27  0.00021  0.02668    0    360  360  360  1    0  1  -360  360  
  68  3  5e-05  0.0157    0    1000  1000  1000  1    0  1  -360  360  
  68  11  5e-05  -0.00158    0    1000  1000  1000  1    0  1  -360  360  
  68  28  0.00021  0.02668    0    360  360  360  1    0  1  -360  360  
  69  3  5e-05  0.0157    0    1000  1000  1000  1    0  1  -360  360  
  69  11  5e-05  -0.00158    0    1000  1000  1000  1    0  1  -360  360  
  69  29  0.00021  0.02668    0    360  360  360  1    0  1  -360  360  
  70  1  5e-05  0.0157    0    1000  1000  1000  1    0  1  -360  360  
  70  12  5e-05  -0.00158    0    1000  1000  1000  1    0  1  -360  360  
  70  30  0.00021  0.02668    0    360  360  360  1    0  1  -360  360  
  71  4  5e-05  0.0157    0    1000  1000  1000  1    0  1  -360  360  
  71  13  5e-05  -0.00158    0    1000  1000  1000  1    0  1  -360  360  
  71  31  0.00021  0.02668    0    360  360  360  1    0  1  -360  360  
  72  5  5e-05  0.0157    0    1000  1000  1000  1    0  1  -360  360  
  72  14  5e-05  -0.00158    0    1000  1000  1000  1    0  1  -360  360  
  72  32  0.00021  0.02668    0    360  360  360  1    0  1  -360  360  
  73  6  5e-05  0.0157    0    1000  1000  1000  1    0  1  -360  360  
  73  15  5e-05  -0.00158    0    1000  1000  1000  1    0  1  -360  360  
  73  33  0.00021  0.02668    0    360  360  360  1    0  1  -360  360  
  74  7  5e-05  0.0157    0    1000  1000  1000  1    0  1  -360  360  
  74  16  5e-05  -0.00158    0    1000  1000  1000  1    0  1  -360  360  
  74  34  0.00021  0.02668    0    360  360  360  1    0  1  -360  360  
  75  4  0.00028  0.03331    0    750  750  750  1    0  1  -360  360  
  76  4  0.00028  0.03331    0    750  750  750  1    0  1  -360  360  
  77  5  0.00028  0.03331    0    750  750  750  1    0  1  -360  360  
  78  5  0.00028  0.03331    0    750  750  750  1    0  1  -360  360  
  79  5  0.00028  0.03331    0    750  750  750  1    0  1  -360  360  
  80  35  0  0.02708    0    240  240  240  0.9999999965217392    0  1  -360  360  
  81  36  0  0.02708    0    240  240  240  0.9999999965217392    0  1  -360  360  
  82  37  0  0.02708    0    240  240  240  0.9999999965217392    0  1  -360  360  
  83  38  0  0.02708    0    240  240  240  0.9999999965217392    0  1  -360  360  
  84  39  0  0.02708    0    240  240  240  0.9999999965217392    0  1  -360  360  
  85  40  0  0.02708    0    240  240  240  0.9999999965217392    0  1  -360  360  
  86  41  0  0.02708    0    240  240  240  0.9999999965217392    0  1  -360  360  
  87  42  0  0.02708    0    240  240  240  0.9999999965217392    0  1  -360  360  
];
%% BD data
%% %1.  serial no 
%% %2.  converter node index 
%% %3.  valve node index 
%% %4.  DC BaseKv 
%% %5.  Phase shifting resistance(p.u. in DC side) 
%% %6.  Converter transformer ratio 
%% %7.  Flat wave reactor reactance(p.u.) 
%% %8.  DC line resistance(p.u.)  
%% %9.  DC line inductance(p.u.) 
mpc.BD = [
1   8   49   500   0.004042790426837807   0.9026397384426165   0.000116   0.002   0.000314148   ;
2   9   50   500   0.003630352641228322   0.9281916387086108   0.000116   0.002   0.000314148   ;
3   8   51   500   0.004042790426837807   0.9026397384426165   0.000116   0.002   0.00032   ;
4   9   52   500   0.003630352641228322   0.9281916387086108   0.000116   0.002   0.00032   ;
];
%% busmap data
%	busname  bus_no 
mpc.map = {
'B01525.00',1;
'B02525.00',2;
'B03525.00',3;
'B04525.00',4;
'B05525.00',5;
'B06525.00',6;
'B07525.00',7;
'B08525.00',8;
'B09525.00',9;
'B10230.00',10;
'B11230.00',11;
'B12230.00',12;
'B13230.00',13;
'B14230.00',14;
'B15230.00',15;
'B16230.00',16;
'B17230.00',17;
'B18230.00',18;
'B19230.00',19;
'B20230.00',20;
'B25230.00',21;
'B26230.00',22;
'B27230.00',23;
'B2937.00',24;
'B3037.00',25;
'B3137.00',26;
'B3237.00',27;
'B3337.00',28;
'B3437.00',29;
'B3537.00',30;
'B3637.00',31;
'B3737.00',32;
'B3837.00',33;
'B3937.00',34;
'B4037.00',35;
'B4137.00',36;
'B4237.00',37;
'B4337.00',38;
'B4437.00',39;
'B4537.00',40;
'B4637.00',41;
'B4737.00',42;
'B5637.00',43;
'B5737.00',44;
'B5837.00',45;
'B5937.00',46;
'B6037.00',47;
'B6137.00',48;
'DN01210.00',49;
'DN02199.00',50;
'DP01210.00',51;
'DP02199.00',52;
'PV03-010.40',53;
'PV03-020.40',54;
'PV03-030.40',55;
'PV03-040.40',56;
'PV03-050.40',57;
'PV03-060.40',58;
'RE-Bus525.00',59;
'SC02-0120.00',60;
'SC02-0220.00',61;
'SC03-0320.00',62;
'SC03-0420.00',63;
'T3-011.00',64;
'T3-021.00',65;
'T3-031.00',66;
'T3-041.00',67;
'T3-051.00',68;
'T3-061.00',69;
'T3-071.00',70;
'T3-081.00',71;
'T3-091.00',72;
'T3-101.00',73;
'T3-111.00',74;
'TP04-0220.00',75;
'TP04-0320.00',76;
'TP05-0420.00',77;
'TP05-0520.00',78;
'TP05-0620.00',79;
'WT02-010.69',80;
'WT02-020.69',81;
'WT02-030.69',82;
'WT02-040.69',83;
'WT02-050.69',84;
'WT02-060.69',85;
'WT02-070.69',86;
'WT02-080.69',87;
};
%% busmap data
%	busname  bus_no 
mpc.zonemap = {
'0',2;
'1S',1;
'2R',4;
'ZL',3;
};
